main_Project
*SPICE Netlist generated by Advanced Sim server on 2020/4/28 15:36:01

*Schematic Netlist:

.SAVE 0


*Selected Circuit Analyses:
.TRAN 2E-8 5E-6 0 2E-8
.OP

.END
